%%%%%%%%%%%%%%%%%%%%%%%%%%%%%%%%%%%%%%%%%%%%%%%%%%%%%%%%%%%%%%%%%%%%%%%%%%%%%%%%
%                                                                              %
% SU2 configuration file                                                       %
% Case description: Non-ideal compressible fluid flow in a converging-         %
%                   diverging supersonic nozzle for siloxane fluid MDM         %
% Author: Alberto Guardone                                                     %
% Institution: Politecnico di Milano                                           %
% Date: 2019.05.03                                                             %
% File Version 6.2.0 "Falcon"                                                  %
%                                                                              %
%%%%%%%%%%%%%%%%%%%%%%%%%%%%%%%%%%%%%%%%%%%%%%%%%%%%%%%%%%%%%%%%%%%%%%%%%%%%%%%%

% ------------- DIRECT, ADJOINT, AND LINEARIZED PROBLEM DEFINITION ------------%
%
% Physical governing equations (EULER, NAVIER_STOKES,
%                               FEM_EULER, FEM_NAVIER_STOKES, FEM_RANS, FEM_LES,
%                               WAVE_EQUATION, HEAT_EQUATION, FEM_ELASTICITY,
%                               POISSON_EQUATION)
SOLVER= RANS
%
% Specify turbulence model (NONE, SA, SA_NEG, SST, SA_E, SA_COMP, SA_E_COMP)
KIND_TURB_MODEL= SA
%
SA_OPTIONS=COMPRESSIBILITY
%
% The V2003m is the k-w SST 2003 version with the following modification: TKE is not included in the viscous stress tensor (see SU2 v7.8)
%SA_OPTIONS= NONE
%
% Specify subgrid scale model(NONE, IMPLICIT_LES, SMAGORINSKY, WALE, VREMAN)
KIND_SGS_MODEL= WALE
%
% Specify Hybrid RANS/LES model (SA_DES, SA_DDES, SA_ZDES, SA_EDDES)
HYBRID_RANSLES= SA_ZDES
%
% DES Constant (0.65)
DES_CONST= 0.65
%
% Mathematical problem (DIRECT, CONTINUOUS_ADJOINT, DISCRETE_ADJOINT)
MATH_PROBLEM= DIRECT
%
% Restart solution (NO, YES)
% --> 1)To restart from .csv = RESTART_SOL=YES and READ_BINARY_RESTART=NO
% --> 2)SOLUTION_FILENAME=solution_flow.csv (issued from restart_flow.csv or Fluent through perso Python script)
RESTART_SOL= YES
READ_BINARY_RESTART= YES
%
% Specify unsteady restart iteration
RESTART_ITER= 141
%
% System of measurements (SI, US)
% International system of units (SI): ( meters, kilograms, Kelvins,
%                                       Newtons = kg m/s^2, Pascals = N/m^2,
%                                       Density = kg/m^3, Speed = m/s,
%                                       Equiv. Area = m^2 )
% United States customary units (US): ( inches, slug, Rankines, lbf = slug ft/s^2,
%                                       psf = lbf/ft^2, Density = slug/ft^3,
%                                       Speed = ft/s, Equiv. Area = ft^2 )
SYSTEM_MEASUREMENTS= SI
%
% ------------------------- TIME-DEPENDENT SIMULATION -------------------------------%
%
% Time domain simulation
TIME_DOMAIN= YES
%
% Unsteady simulation (NO, TIME_STEPPING, DUAL_TIME_STEPPING-1ST_ORDER,
%                      DUAL_TIME_STEPPING-2ND_ORDER, HARMONIC_BALANCE)
TIME_MARCHING= DUAL_TIME_STEPPING-2ND_ORDER
%
% Time Step for dual time stepping simulations (s) -- Only used when UNST_CFL_NUMBER = 0.0
% For the DG-FEM solver it is used as a synchronization time when UNST_CFL_NUMBER != 0.0
%TIME_STEP= 1e9
%
% Total Physical Time for dual time stepping simulations (s)
%MAX_TIME= 10.0
%
% Maximum number of inner iterations (dual-time method)
INNER_ITER= 5
%
% Maximum number of time iterations (physical time iteration)
TIME_ITER= 100000
%
% Unsteady Courant-Friedrichs-Lewy number of the finest grid
UNST_CFL_NUMBER= 0.9
%
% -------------------- COMPRESSIBLE FREE-STREAM DEFINITION --------------------%
%
% Mach number (non-dimensional, based on the free-stream values)
MACH_NUMBER= 1e-9
%
% Angle of attack (degrees, only for compressible flows)
AOA= 0.0
%
% Side-slip angle (degrees, only for compressible flows)
SIDESLIP_ANGLE= 0.0
%
% Init option to choose between Reynolds (default) or thermodynamics quantities
% for initializing the solution (REYNOLDS, TD_CONDITIONS)
INIT_OPTION= TD_CONDITIONS
%
% Free-stream option to choose between density and temperature (default) for
% initializing the solution (TEMPERATURE_FS, DENSITY_FS)
FREESTREAM_OPTION= DENSITY_FS
%
% Free-stream pressure (101325.0 N/m^2, 2116.216 psf by default)
FREESTREAM_PRESSURE= 8e6
%
% Free-stream temperature (288.15 K, 518.67 R by default)
FREESTREAM_DENSITY= 436.24
%
% Compressible flow non-dimensionalization (DIMENSIONAL, FREESTREAM_PRESS_EQ_ONE,
%                              FREESTREAM_VEL_EQ_MACH, FREESTREAM_VEL_EQ_ONE)
REF_DIMENSIONALIZATION= DIMENSIONAL

% ---- IDEAL GAS, POLYTROPIC, VAN DER WAALS AND PENG ROBINSON CONSTANTS -------%
%
% Fluid model (STANDARD_AIR, IDEAL_GAS, VW_GAS, PR_GAS,
%              CONSTANT_DENSITY, INC_IDEAL_GAS, INC_IDEAL_GAS_POLY)
FLUID_MODEL= SW_TABLE
%SW_TABLE
%
% Ratio of specific heats (1.4 default and the value is hardcoded
%                          for the model STANDARD_AIR, compressible only)
GAMMA_VALUE= 1.3
%
% Specific gas constant (287.058 J/kg*K default and this value is hardcoded
%                        for the model STANDARD_AIR, compressible only)
GAS_CONSTANT=188.9
%
% Critical Temperature (131.00 K by default)
CRITICAL_TEMPERATURE= 304.128
%
% Critical Pressure (3588550.0 N/m^2 by default)
CRITICAL_PRESSURE= 7377330
%
% Acentric factor (0.035 (air))
ACENTRIC_FACTOR= 0.224

% --------------------------- VISCOSITY MODEL ---------------------------------%
%
% Viscosity model (SUTHERLAND, CONSTANT_VISCOSITY, POLYNOMIAL_VISCOSITY).
VISCOSITY_MODEL= CONSTANT_VISCOSITY
%
% Molecular Viscosity that would be constant (1.716E-5 by default)
MU_CONSTANT= 1.66E-05

% --------------------------- THERMAL CONDUCTIVITY MODEL ----------------------%
%
% Laminar Conductivity model (CONSTANT_CONDUCTIVITY, CONSTANT_PRANDTL,
% POLYNOMIAL_CONDUCTIVITY).
CONDUCTIVITY_MODEL= CONSTANT_PRANDTL
%
% Molecular Thermal Conductivity that would be constant (0.0257 by default)
THERMAL_CONDUCTIVITY_CONSTANT= 0.030542828

% -------------------- BOUNDARY CONDITION DEFINITION --------------------------%
%
% Navier-Stokes (no-slip), constant heat flux wall  marker(s) (NONE = no marker)
% Format: ( marker name, constant heat flux (J/m^2), ... )
MARKER_HEATFLUX= ( WALLS, 0.0, WALLS_1, 0.0, WALLS_2, 0.0, WALLS_3, 0.0, WALLS_4, 0.0, WALLS_5, 0.0, WALLS_6, 0.0, WALLS_7, 0.0, WALLS_8, 0.0 )
%
% Viscous wall markers for which wall functions must be applied. (NONE = no marker)
% Format: ( marker name, wall function type -NO_WALL_FUNCTION, STANDARD_WALL_FUNCTION,
%           ADAPTIVE_WALL_FUNCTION, STANDARD_WALL_FUNCTION, STANDARD_WALL_MODEL,
%           NONSTANDARD_WALL_MODEL-, ... )
MARKER_WALL_FUNCTIONS= ( WALLS, STANDARD_WALL_FUNCTION, WALLS_1, STANDARD_WALL_FUNCTION, WALLS_2, STANDARD_WALL_FUNCTION, WALLS_3, STANDARD_WALL_FUNCTION, WALLS_4, STANDARD_WALL_FUNCTION, WALLS_5, STANDARD_WALL_FUNCTION, WALLS_6, STANDARD_WALL_FUNCTION, WALLS_7, STANDARD_WALL_FUNCTION, WALLS_8, STANDARD_WALL_FUNCTION )
%
% The y+ value below which the wall function is switched off and we resolve the wall 
%WALLMODEL_MINYPLUS= 5.0
%
% [Expert] Max Newton iterations used for the standard wall function
%WALLMODEL_MAXITER= 200
%
% [Expert] relaxation factor for the Newton iterations of the standard wall function 
%WALLMODEL_RELFAC= 0.5
%
% Symmetry boundary marker(s) (NONE = no marker)
MARKER_SYM= ( NONE )
%
% Riemann boundary marker(s) (NONE = no marker)
% Format: (marker, data kind flag, list of data)
MARKER_RIEMANN= ( INLET1, TOTAL_CONDITIONS_PT, 8e6, 308, 0.0, -0.5968017, -0.8023888,INLET2, TOTAL_CONDITIONS_PT, 8e6, 308, 0.0, 0.3965172, -0.9180273,INLET3, TOTAL_CONDITIONS_PT, 8e6, 308, 0.0, 0.9932816, -0.1157221,INLET4, TOTAL_CONDITIONS_PT, 8e6, 308, 0.0, 0.5968017, 0.8023888,INLET5, TOTAL_CONDITIONS_PT, 8e6, 308, 0.0, -0.3965172, 0.9180273,INLET6, TOTAL_CONDITIONS_PT, 8e6, 308, 0.0, -0.99328

% Marker(s) of the surface that is going to be analyzed in detail (massflow, average pressure, distortion, etc)
MARKER_ANALYZE = ( INLET1, INLET2, INLET3, INLET4, INLET5, INLET6, COLDOUTLET, HOTOUTLET )
%
% Method to compute the average value in MARKER_ANALYZE (AREA, MASSFLUX).
MARKER_ANALYZE_AVERAGE = MASSFLUX

% ------------- COMMON PARAMETERS DEFINING THE NUMERICAL METHOD ---------------%
%
% Numerical method for spatial gradients (GREEN_GAUSS, WEIGHTED_LEAST_SQUARES)
NUM_METHOD_GRAD= WEIGHTED_LEAST_SQUARES
%
% CFL number (initial value for the adaptive CFL number)
CFL_NUMBER= 1.0
%
% Adaptive CFL number (NO, YES)
CFL_ADAPT= YES
%
% Parameters of the adaptive CFL number (factor down, factor up, CFL min value,
%                                        CFL max value )
CFL_ADAPT_PARAM= ( 0.1, 2.0, 25.0, 100.0 )
%
% Maximum Delta Time in local time stepping simulations
%MAX_DELTA_TIME= 1E3

% ----------- SLOPE LIMITER AND DISSIPATION SENSOR DEFINITION -----------------%
%
% Monotonic Upwind Scheme for Conservation Laws (TVD) in the flow equations.
%           Required for 2nd order upwind schemes (NO, YES)
MUSCL_FLOW= YES
%
% Slope limiter (NONE, VENKATAKRISHNAN, VENKATAKRISHNAN_WANG,
%                BARTH_JESPERSEN, VAN_ALBADA_EDGE)
SLOPE_LIMITER_FLOW= VENKATAKRISHNAN
%
% Coefficient for the Venkat's limiter (upwind scheme). A larger values decrease
%             the extent of limiting, values approaching zero cause
%             lower-order approximation to the solution (0.05 by default)
%VENKAT_LIMITER_COEFF= 0.05
%
%
% Monotonic Upwind Scheme for Conservation Laws (TVD) in the turbulence equations.
%           Required for 2nd order upwind schemes (NO, YES)
MUSCL_TURB= YES

% ------------------------ LINEAR SOLVER DEFINITION ---------------------------%
%
% Linear solver or smoother for implicit formulations (BCGSTAB, FGMRES, SMOOTHER_JACOBI,
%                                                      SMOOTHER_ILU, SMOOTHER_LUSGS,
%                                                      SMOOTHER_LINELET)
LINEAR_SOLVER= FGMRES
%
% Preconditioner of the Krylov linear solver (ILU, LU_SGS, LINELET, JACOBI)
LINEAR_SOLVER_PREC= ILU
%
% Linael solver ILU preconditioner fill-in level (0 by default)
LINEAR_SOLVER_ILU_FILL_IN= 0
%
% Minimum error of the linear solver for implicit formulations
LINEAR_SOLVER_ERROR= 1E-6
%
% Max number of iterations of the linear solver for the implicit formulation
LINEAR_SOLVER_ITER= 10

% -------------------------- MULTIGRID PARAMETERS -----------------------------%
%
% Multi-grid levels (0 = no multi-grid)
MGLEVEL= 0

% -------------------- FLOW NUMERICAL METHOD DEFINITION -----------------------%
%
% Convective numerical method (JST, LAX-FRIEDRICH, CUSP, ROE, AUSM, AUSMPLUSUP, AUSMPLUSUP2, HLLC,
%                              TURKEL_PREC, MSW, FDS)
CONV_NUM_METHOD_FLOW= ROE
%
% Roe Low Dissipation function for Hybrid RANS/LES simulations (FD, NTS, NTS_DUCROS)
ROE_LOW_DISSIPATION= FD
%
% Entropy fix coefficient (0.0 implies no entropy fixing, 1.0 implies scalar
%                          artificial dissipation, LES should target 0.01, RANS up to 0.2)
ENTROPY_FIX_COEFF= 0.1
%
% Time discretization (RUNGE-KUTTA_EXPLICIT, EULER_IMPLICIT, EULER_EXPLICIT)
TIME_DISCRE_FLOW= EULER_IMPLICIT

% -------------------- TURBULENT NUMERICAL METHOD DEFINITION ------------------%
%
% Convective numerical method (SCALAR_UPWIND)
CONV_NUM_METHOD_TURB= SCALAR_UPWIND
%
% Time discretization (EULER_IMPLICIT)
TIME_DISCRE_TURB= EULER_IMPLICIT
%
% Reduction factor of the CFL coefficient in the turbulence problem
CFL_REDUCTION_TURB= 0.5

% --------------------------- CONVERGENCE PARAMETERS --------------------------%
%
% Number of total iterations in steady simulations
%ITER= 20000
%
% Start convergence criteria at iteration number
CONV_STARTITER= 10

% Convergence field
CONV_FIELD= RMS_DENSITY
%
% Min value of the residual (log10 of the residual)
% At 5000 iterations: (rho,rhoUx,rhoUy,rhoUz,rhoE,k,omega)==(-8, -8, -8, -8, -4, -7, -5)
CONV_RESIDUAL_MINVAL= -10

% Number of elements to apply the criteria
%CONV_CAUCHY_ELEMS= 100
%
% Epsilon to control the series convergence
%CONV_CAUCHY_EPS= 1E+3

% ------------------------- INPUT/OUTPUT INFORMATION --------------------------%
%
%DV_KIND= NO_DEFORMATION
%
% Mesh input file
MESH_FILENAME= srsMesh12.cgns
%
% Mesh input file format (SU2, CGNS)
MESH_FORMAT= CGNS
%
% Mesh output file
MESH_OUT_FILENAME= mesh_out.su2
%
% Restart flow input file
SOLUTION_FILENAME= restart.dat
%solution_flow.dat
%
% Output file format (TECPLOT, TECPLOT_BINARY, PARAVIEW, PARAVIEW_BINARY,
%                     FIELDVIEW, FIELDVIEW_BINARY)
%TABULAR_FORMAT= CSV
%
% Files to output
% Possible formats : (TECPLOT_ASCII, TECPLOT, SURFACE_TECPLOT_ASCII,
%  SURFACE_TECPLOT, CSV, SURFACE_CSV, PARAVIEW_ASCII, PARAVIEW_LEGACY, SURFACE_PARAVIEW_ASCII,
%  SURFACE_PARAVIEW_LEGACY, PARAVIEW, SURFACE_PARAVIEW, RESTART_ASCII, RESTART, CGNS, SURFACE_CGNS, STL_ASCII, STL_BINARY)
% default : (RESTART, PARAVIEW, SURFACE_PARAVIEW)
OUTPUT_FILES= (RESTART, PARAVIEW)
%
% Output file convergence history (w/o extension)
CONV_FILENAME= history
%
% Output file flow (w/o extension) variables
VOLUME_FILENAME= flow
%
% Output file surface flow coefficient (w/o extension)
SURFACE_FILENAME= surface_flow
%
% Writing solution file frequency
OUTPUT_WRT_FREQ= 10
%
% Writing frequency for screen output
SCREEN_WRT_FREQ_INNER= 1
%
SCREEN_WRT_FREQ_OUTER= 1
%
SCREEN_WRT_FREQ_TIME= 1
%
% Writing frequency for history output
HISTORY_WRT_FREQ_INNER= 1
%
HISTORY_WRT_FREQ_OUTER= 1
%
HISTORY_WRT_FREQ_TIME= 1
%
% Keep copies of restart files -> NO below
WRT_RESTART_OVERWRITE= YES
%
% Screen output
VOLUME_OUTPUT= PRIMITIVE, VORTICITY, Q_CRITERION, SDD_compressible, SDD, SID, SDT, SIT, ENTROPY_PROD_RATE_compressible, ENTROPY_PROD_RATE, BEJAN_compressible, BEJAN, ENTROPY_PROD_compressible, ENTROPY_PROD, S_MEAN_MODULUS, duxdx2, duydy2, duzdz2, duxdy_duydx2, duxdz_duzdx2, duydz_duzdy2, GRAD_T_MODULUS, dTdx2, dTdy2, dTdz2, SWIRL_NUMBER_AFTM, SWIRL_NUMBER_AFAM, SWIRL_NUMBER, DES_LENGTHSCALE, WALL_
%
SCREEN_OUTPUT= (TIME_ITER, OUTER_ITER, INNER_ITER, TIME_STEP, CUR_TIME, CFL_NUMBER, RMS_DENSITY, RMS_MOMENTUM-X, RMS_MOMENTUM-Y, RMS_MOMENTUM-Z, RMS_ENERGY, RMS_TKE, RMS_DISSIPATION, RMS_NU_TILDE, SURFACE_MASSFLOW, AVG_ENTHALPY, SURFACE_TOTAL_TEMPERATURE, SURFACE_TOTAL_PRESSURE)
%
% History output groups (use 'SU2_CFD -d <config_file>' to view list of available fields)
HISTORY_OUTPUT= (TIME_ITER, OUTER_ITER, INNER_ITER, CFL_NUMBER, RMS_RES, SURFACE_MASSFLOW, SURFACE_STATIC_TEMPERATURE, SURFACE_STATIC_PRESSURE)
